File for testing PR - posting coments to github from jenkins
New line...
